Circuit: * D:\emman\Codes\Analog Design\God Mode Analog Design\CS Stage - Resistive Load.asc


Date: Sun Sep 12 09:55:24 2021
Total elapsed time: 0.049 seconds.

tnom = 27
temp = 27
method = trap
totiter = 4006
traniter = 0
tranpoints = 0
accept = 0
rejected = 0
matrix size = 5
fillins = 0
solver = Normal
Matrix Compiler1: 114 bytes object code size  0.0/0.0/[0.0]
Matrix Compiler2: 301 bytes object code size  0.0/0.1/[0.0]

