Circuit: * D:\emman\Codes\Circuits - Practice\analog_design\God Mode Analog Design\CS Stage - Resistive Load.asc

Direct Newton iteration for .op point succeeded.

Date: Sun Sep 12 18:01:11 2021
Total elapsed time: 0.062 seconds.

tnom = 27
temp = 27
method = modified trap
totiter = 2087
traniter = 2082
tranpoints = 1042
accept = 1042
rejected = 0
matrix size = 11
fillins = 0
solver = Normal
Matrix Compiler1: 556 bytes object code size  0.1/0.1/[0.0]
Matrix Compiler2: off  [0.1]/0.1/0.1

