Circuit: * D:\emman\Codes\Analog Design\God Mode Analog Design\CS Stage - Resistive Load.asc

Direct Newton iteration for .op point succeeded.

Date: Fri Sep 10 22:36:31 2021
Total elapsed time: 0.045 seconds.

tnom = 27
temp = 27
method = modified trap
totiter = 3443
traniter = 3437
tranpoints = 1087
accept = 1063
rejected = 24
matrix size = 7
fillins = 0
solver = Normal
Matrix Compiler1: 178 bytes object code size  0.0/0.0/[0.0]
Matrix Compiler2: off  [0.1]/0.1/0.1

