Circuit: * D:\emman\Codes\Circuits - Practice\analog_design\God Mode Analog Design\Draft1.asc

.step l=1.6e-008
.step l=3.2e-008
.step l=4.8e-008
.step l=6.4e-008
.step l=8e-008

Date: Fri Sep 17 16:51:37 2021
Total elapsed time: 0.310 seconds.

tnom = 27
temp = 27
method = trap
totiter = 1004
traniter = 0
tranpoints = 0
accept = 0
rejected = 0
matrix size = 8
fillins = 0
solver = Normal
Matrix Compiler1:      20 opcodes  0.1/0.0/[0.0]
Matrix Compiler2: 656 bytes object code size  0.1/0.1/[0.1]

