Circuit: * D:\emman\Codes\Analog Design\God Mode Analog Design\Draft1.asc

V3: Missing value, assumed 0V @ DC

Date: Sat Sep 11 22:35:56 2021
Total elapsed time: 0.058 seconds.

tnom = 27
temp = 27
method = trap
totiter = 4021
traniter = 0
tranpoints = 0
accept = 0
rejected = 0
matrix size = 7
fillins = 0
solver = Normal
Matrix Compiler1:      10 opcodes  0.1/[0.0]/0.0
Matrix Compiler2: 413 bytes object code size  0.0/0.1/[0.0]

