Circuit: * C:\Users\emman\OneDrive\Desktop\Microelectronics Research\CoE197U\Lab07\lab07_cs_amp_w_cm.asc


Date: Fri Jun 25 23:30:13 2021
Total elapsed time: 0.049 seconds.

tnom = 27
temp = 27
method = trap
totiter = 2013
traniter = 0
tranpoints = 0
accept = 0
rejected = 0
matrix size = 18
fillins = 0
solver = Normal
Matrix Compiler1: 1.58 KB object code size  0.3/0.2/[0.1]
Matrix Compiler2: 1.86 KB object code size  0.2/0.2/[0.2]

