Circuit: * C:\Users\emman\OneDrive\Desktop\Microelectronics Research\CoE197U\Lab07\lab07_cs_amp_w_cs.asc


Date: Fri Jun 25 23:10:54 2021
Total elapsed time: 0.052 seconds.

tnom = 27
temp = 27
method = trap
totiter = 2012
traniter = 0
tranpoints = 0
accept = 0
rejected = 0
matrix size = 15
fillins = 0
solver = Normal
Matrix Compiler1: 1006 bytes object code size  0.2/0.1/[0.1]
Matrix Compiler2: 1.44 KB object code size  0.1/0.2/[0.1]

