Circuit: * C:\Users\emman\OneDrive\Desktop\Microelectronics Research\CoE197U\Lab07\lab07_nmos_char.asc


Date: Fri Jun 25 02:06:03 2021
Total elapsed time: 0.068 seconds.

tnom = 27
temp = 27
method = trap
totiter = 2404
traniter = 0
tranpoints = 0
accept = 0
rejected = 0
matrix size = 8
fillins = 0
solver = Normal
Matrix Compiler1: 336 bytes object code size  0.1/0.0/[0.0]
Matrix Compiler2: 656 bytes object code size  0.1/0.1/[0.1]

