Circuit: * C:\Users\emman\OneDrive\Desktop\Microelectronics Research\Analog\analog_design\gmId\32n_lp_cs_res.asc

Direct Newton iteration for .op point succeeded.

Date: Mon Jun 13 13:42:42 2022
Total elapsed time: 0.040 seconds.

tnom = 27
temp = 27
method = modified trap
totiter = 2087
traniter = 2082
tranpoints = 1042
accept = 1042
rejected = 0
matrix size = 11
fillins = 0
solver = Normal
Matrix Compiler1:      31 opcodes  0.1/[0.1]/0.1
Matrix Compiler2: off  [0.1]/0.1/0.1

