Circuit: * C:\Users\emman\OneDrive\Desktop\Microelectronics Research\Analog\analog_design\gmId\Draft1.asc

WARNING: Node NC_01 is floating.

WARNING: Less than two connections to node NC_01.  This node is used by M1.
.step l=1.6e-007
.step l=1.92e-007
.step l=2.24e-007
.step l=2.56e-007
.step l=2.88e-007
.step l=3.2e-007

Date: Mon Jun 13 11:25:12 2022
Total elapsed time: 0.222 seconds.

tnom = 27
temp = 27
method = trap
totiter = 2006
traniter = 0
tranpoints = 0
accept = 0
rejected = 0
matrix size = 9
fillins = 0
solver = Normal
Matrix Compiler1:      31 opcodes  0.1/0.1/[0.1]
Matrix Compiler2: 797 bytes object code size  0.1/0.1/[0.1]

