Circuit: * C:\Users\emman\OneDrive\Desktop\Microelectronics Research\Analog\analog_design\gmId\intrinsic_extract.asc

.OP point found by inspection.
.step vds=0 l=2.8e-007
.step vds=0.01 l=2.8e-007
.step vds=0.02 l=2.8e-007
.step vds=0.03 l=2.8e-007
.step vds=0.04 l=2.8e-007
.step vds=0.05 l=2.8e-007
.step vds=0.06 l=2.8e-007
.step vds=0.07 l=2.8e-007
.step vds=0.08 l=2.8e-007
.step vds=0.09 l=2.8e-007
.step vds=0.1 l=2.8e-007
.step vds=0.11 l=2.8e-007
.step vds=0.12 l=2.8e-007
.step vds=0.13 l=2.8e-007
.step vds=0.14 l=2.8e-007
.step vds=0.15 l=2.8e-007
.step vds=0.16 l=2.8e-007
.step vds=0.17 l=2.8e-007
.step vds=0.18 l=2.8e-007
.step vds=0.19 l=2.8e-007
.step vds=0.2 l=2.8e-007
.step vds=0.21 l=2.8e-007
.step vds=0.22 l=2.8e-007
.step vds=0.23 l=2.8e-007
.step vds=0.24 l=2.8e-007
.step vds=0.25 l=2.8e-007
.step vds=0.26 l=2.8e-007
.step vds=0.27 l=2.8e-007
.step vds=0.28 l=2.8e-007
.step vds=0.29 l=2.8e-007
.step vds=0.3 l=2.8e-007
.step vds=0.31 l=2.8e-007
.step vds=0.32 l=2.8e-007
.step vds=0.33 l=2.8e-007
.step vds=0.34 l=2.8e-007
.step vds=0.35 l=2.8e-007
.step vds=0.36 l=2.8e-007
.step vds=0.37 l=2.8e-007
.step vds=0.38 l=2.8e-007
.step vds=0.39 l=2.8e-007
.step vds=0.4 l=2.8e-007
.step vds=0.41 l=2.8e-007
.step vds=0.42 l=2.8e-007
.step vds=0.43 l=2.8e-007
.step vds=0.44 l=2.8e-007
.step vds=0.45 l=2.8e-007
.step vds=0.46 l=2.8e-007
.step vds=0.47 l=2.8e-007
.step vds=0.48 l=2.8e-007
.step vds=0.49 l=2.8e-007
.step vds=0.5 l=2.8e-007
.step vds=0.51 l=2.8e-007
.step vds=0.52 l=2.8e-007
.step vds=0.53 l=2.8e-007
.step vds=0.54 l=2.8e-007
.step vds=0.55 l=2.8e-007
.step vds=0.56 l=2.8e-007
.step vds=0.57 l=2.8e-007
.step vds=0.58 l=2.8e-007
.step vds=0.59 l=2.8e-007
.step vds=0.6 l=2.8e-007
.step vds=0.61 l=2.8e-007
.step vds=0.62 l=2.8e-007
.step vds=0.63 l=2.8e-007
.step vds=0.64 l=2.8e-007
.step vds=0.65 l=2.8e-007
.step vds=0.66 l=2.8e-007
.step vds=0.67 l=2.8e-007
.step vds=0.68 l=2.8e-007
.step vds=0.69 l=2.8e-007
.step vds=0.7 l=2.8e-007
.step vds=0.71 l=2.8e-007
.step vds=0.72 l=2.8e-007
.step vds=0.73 l=2.8e-007
.step vds=0.74 l=2.8e-007
.step vds=0.75 l=2.8e-007
.step vds=0.76 l=2.8e-007
.step vds=0.77 l=2.8e-007
.step vds=0.78 l=2.8e-007
.step vds=0.79 l=2.8e-007
.step vds=0.8 l=2.8e-007
.step vds=0.81 l=2.8e-007
.step vds=0.82 l=2.8e-007
.step vds=0.83 l=2.8e-007
.step vds=0.84 l=2.8e-007
.step vds=0.85 l=2.8e-007
.step vds=0.86 l=2.8e-007
.step vds=0.87 l=2.8e-007
.step vds=0.88 l=2.8e-007
.step vds=0.89 l=2.8e-007
.step vds=0.9 l=2.8e-007
.step vds=0.91 l=2.8e-007
.step vds=0.92 l=2.8e-007
.step vds=0.93 l=2.8e-007
.step vds=0.94 l=2.8e-007
.step vds=0.95 l=2.8e-007
.step vds=0.96 l=2.8e-007
.step vds=0.97 l=2.8e-007
.step vds=0.98 l=2.8e-007
.step vds=0.99 l=2.8e-007
.step vds=1 l=2.8e-007
.step vds=0 l=3.08e-007
.step vds=0.01 l=3.08e-007
.step vds=0.02 l=3.08e-007
.step vds=0.03 l=3.08e-007
.step vds=0.04 l=3.08e-007
.step vds=0.05 l=3.08e-007
.step vds=0.06 l=3.08e-007
.step vds=0.07 l=3.08e-007
.step vds=0.08 l=3.08e-007
.step vds=0.09 l=3.08e-007
.step vds=0.1 l=3.08e-007
.step vds=0.11 l=3.08e-007
.step vds=0.12 l=3.08e-007
.step vds=0.13 l=3.08e-007
.step vds=0.14 l=3.08e-007
.step vds=0.15 l=3.08e-007
.step vds=0.16 l=3.08e-007
.step vds=0.17 l=3.08e-007
.step vds=0.18 l=3.08e-007
.step vds=0.19 l=3.08e-007
.step vds=0.2 l=3.08e-007
.step vds=0.21 l=3.08e-007
.step vds=0.22 l=3.08e-007
.step vds=0.23 l=3.08e-007
.step vds=0.24 l=3.08e-007
.step vds=0.25 l=3.08e-007
.step vds=0.26 l=3.08e-007
.step vds=0.27 l=3.08e-007
.step vds=0.28 l=3.08e-007
.step vds=0.29 l=3.08e-007
.step vds=0.3 l=3.08e-007
.step vds=0.31 l=3.08e-007
.step vds=0.32 l=3.08e-007
.step vds=0.33 l=3.08e-007
.step vds=0.34 l=3.08e-007
.step vds=0.35 l=3.08e-007
.step vds=0.36 l=3.08e-007
.step vds=0.37 l=3.08e-007
.step vds=0.38 l=3.08e-007
.step vds=0.39 l=3.08e-007
.step vds=0.4 l=3.08e-007
.step vds=0.41 l=3.08e-007
.step vds=0.42 l=3.08e-007
.step vds=0.43 l=3.08e-007
.step vds=0.44 l=3.08e-007
.step vds=0.45 l=3.08e-007
.step vds=0.46 l=3.08e-007
.step vds=0.47 l=3.08e-007
.step vds=0.48 l=3.08e-007
.step vds=0.49 l=3.08e-007
.step vds=0.5 l=3.08e-007
.step vds=0.51 l=3.08e-007
.step vds=0.52 l=3.08e-007
.step vds=0.53 l=3.08e-007
.step vds=0.54 l=3.08e-007
.step vds=0.55 l=3.08e-007
.step vds=0.56 l=3.08e-007
.step vds=0.57 l=3.08e-007
.step vds=0.58 l=3.08e-007
.step vds=0.59 l=3.08e-007
.step vds=0.6 l=3.08e-007
.step vds=0.61 l=3.08e-007
.step vds=0.62 l=3.08e-007
.step vds=0.63 l=3.08e-007
.step vds=0.64 l=3.08e-007
.step vds=0.65 l=3.08e-007
.step vds=0.66 l=3.08e-007
.step vds=0.67 l=3.08e-007
.step vds=0.68 l=3.08e-007
.step vds=0.69 l=3.08e-007
.step vds=0.7 l=3.08e-007
.step vds=0.71 l=3.08e-007
.step vds=0.72 l=3.08e-007
.step vds=0.73 l=3.08e-007
.step vds=0.74 l=3.08e-007
.step vds=0.75 l=3.08e-007
.step vds=0.76 l=3.08e-007
.step vds=0.77 l=3.08e-007
.step vds=0.78 l=3.08e-007
.step vds=0.79 l=3.08e-007
.step vds=0.8 l=3.08e-007
.step vds=0.81 l=3.08e-007
.step vds=0.82 l=3.08e-007
.step vds=0.83 l=3.08e-007
.step vds=0.84 l=3.08e-007
.step vds=0.85 l=3.08e-007
.step vds=0.86 l=3.08e-007
.step vds=0.87 l=3.08e-007
.step vds=0.88 l=3.08e-007
.step vds=0.89 l=3.08e-007
.step vds=0.9 l=3.08e-007
.step vds=0.91 l=3.08e-007
.step vds=0.92 l=3.08e-007
.step vds=0.93 l=3.08e-007
.step vds=0.94 l=3.08e-007
.step vds=0.95 l=3.08e-007
.step vds=0.96 l=3.08e-007
.step vds=0.97 l=3.08e-007
.step vds=0.98 l=3.08e-007
.step vds=0.99 l=3.08e-007
.step vds=1 l=3.08e-007
.step vds=0 l=3.36e-007
.step vds=0.01 l=3.36e-007
.step vds=0.02 l=3.36e-007
.step vds=0.03 l=3.36e-007
.step vds=0.04 l=3.36e-007
.step vds=0.05 l=3.36e-007
.step vds=0.06 l=3.36e-007
.step vds=0.07 l=3.36e-007
.step vds=0.08 l=3.36e-007
.step vds=0.09 l=3.36e-007
.step vds=0.1 l=3.36e-007
.step vds=0.11 l=3.36e-007
.step vds=0.12 l=3.36e-007
.step vds=0.13 l=3.36e-007
.step vds=0.14 l=3.36e-007
.step vds=0.15 l=3.36e-007
.step vds=0.16 l=3.36e-007
.step vds=0.17 l=3.36e-007
.step vds=0.18 l=3.36e-007
.step vds=0.19 l=3.36e-007
.step vds=0.2 l=3.36e-007
.step vds=0.21 l=3.36e-007
.step vds=0.22 l=3.36e-007
.step vds=0.23 l=3.36e-007
.step vds=0.24 l=3.36e-007
.step vds=0.25 l=3.36e-007
.step vds=0.26 l=3.36e-007
.step vds=0.27 l=3.36e-007
.step vds=0.28 l=3.36e-007
.step vds=0.29 l=3.36e-007
.step vds=0.3 l=3.36e-007
.step vds=0.31 l=3.36e-007
.step vds=0.32 l=3.36e-007
.step vds=0.33 l=3.36e-007
.step vds=0.34 l=3.36e-007
.step vds=0.35 l=3.36e-007
.step vds=0.36 l=3.36e-007
.step vds=0.37 l=3.36e-007
.step vds=0.38 l=3.36e-007
.step vds=0.39 l=3.36e-007
.step vds=0.4 l=3.36e-007
.step vds=0.41 l=3.36e-007
.step vds=0.42 l=3.36e-007
.step vds=0.43 l=3.36e-007
.step vds=0.44 l=3.36e-007
.step vds=0.45 l=3.36e-007
.step vds=0.46 l=3.36e-007
.step vds=0.47 l=3.36e-007
.step vds=0.48 l=3.36e-007
.step vds=0.49 l=3.36e-007
.step vds=0.5 l=3.36e-007
.step vds=0.51 l=3.36e-007
.step vds=0.52 l=3.36e-007
.step vds=0.53 l=3.36e-007
.step vds=0.54 l=3.36e-007
.step vds=0.55 l=3.36e-007
.step vds=0.56 l=3.36e-007
.step vds=0.57 l=3.36e-007
.step vds=0.58 l=3.36e-007
.step vds=0.59 l=3.36e-007
.step vds=0.6 l=3.36e-007
.step vds=0.61 l=3.36e-007
.step vds=0.62 l=3.36e-007
.step vds=0.63 l=3.36e-007
.step vds=0.64 l=3.36e-007
.step vds=0.65 l=3.36e-007
.step vds=0.66 l=3.36e-007
.step vds=0.67 l=3.36e-007
.step vds=0.68 l=3.36e-007
.step vds=0.69 l=3.36e-007
.step vds=0.7 l=3.36e-007
.step vds=0.71 l=3.36e-007
.step vds=0.72 l=3.36e-007
.step vds=0.73 l=3.36e-007
.step vds=0.74 l=3.36e-007
.step vds=0.75 l=3.36e-007
.step vds=0.76 l=3.36e-007
.step vds=0.77 l=3.36e-007
.step vds=0.78 l=3.36e-007
.step vds=0.79 l=3.36e-007
.step vds=0.8 l=3.36e-007
.step vds=0.81 l=3.36e-007
.step vds=0.82 l=3.36e-007
.step vds=0.83 l=3.36e-007
.step vds=0.84 l=3.36e-007
.step vds=0.85 l=3.36e-007
.step vds=0.86 l=3.36e-007
.step vds=0.87 l=3.36e-007
.step vds=0.88 l=3.36e-007
.step vds=0.89 l=3.36e-007
.step vds=0.9 l=3.36e-007
.step vds=0.91 l=3.36e-007
.step vds=0.92 l=3.36e-007
.step vds=0.93 l=3.36e-007
.step vds=0.94 l=3.36e-007
.step vds=0.95 l=3.36e-007
.step vds=0.96 l=3.36e-007
.step vds=0.97 l=3.36e-007
.step vds=0.98 l=3.36e-007
.step vds=0.99 l=3.36e-007
.step vds=1 l=3.36e-007
.step vds=0 l=3.64e-007
.step vds=0.01 l=3.64e-007
.step vds=0.02 l=3.64e-007
.step vds=0.03 l=3.64e-007
.step vds=0.04 l=3.64e-007
.step vds=0.05 l=3.64e-007
.step vds=0.06 l=3.64e-007
.step vds=0.07 l=3.64e-007
.step vds=0.08 l=3.64e-007
.step vds=0.09 l=3.64e-007
.step vds=0.1 l=3.64e-007
.step vds=0.11 l=3.64e-007
.step vds=0.12 l=3.64e-007
.step vds=0.13 l=3.64e-007
.step vds=0.14 l=3.64e-007
.step vds=0.15 l=3.64e-007
.step vds=0.16 l=3.64e-007
.step vds=0.17 l=3.64e-007
.step vds=0.18 l=3.64e-007
.step vds=0.19 l=3.64e-007
.step vds=0.2 l=3.64e-007
.step vds=0.21 l=3.64e-007
.step vds=0.22 l=3.64e-007
.step vds=0.23 l=3.64e-007
.step vds=0.24 l=3.64e-007
.step vds=0.25 l=3.64e-007
.step vds=0.26 l=3.64e-007
.step vds=0.27 l=3.64e-007
.step vds=0.28 l=3.64e-007
.step vds=0.29 l=3.64e-007
.step vds=0.3 l=3.64e-007
.step vds=0.31 l=3.64e-007
.step vds=0.32 l=3.64e-007
.step vds=0.33 l=3.64e-007
.step vds=0.34 l=3.64e-007
.step vds=0.35 l=3.64e-007
.step vds=0.36 l=3.64e-007
.step vds=0.37 l=3.64e-007
.step vds=0.38 l=3.64e-007
.step vds=0.39 l=3.64e-007
.step vds=0.4 l=3.64e-007
.step vds=0.41 l=3.64e-007
.step vds=0.42 l=3.64e-007
.step vds=0.43 l=3.64e-007
.step vds=0.44 l=3.64e-007
.step vds=0.45 l=3.64e-007
.step vds=0.46 l=3.64e-007
.step vds=0.47 l=3.64e-007
.step vds=0.48 l=3.64e-007
.step vds=0.49 l=3.64e-007
.step vds=0.5 l=3.64e-007
.step vds=0.51 l=3.64e-007
.step vds=0.52 l=3.64e-007
.step vds=0.53 l=3.64e-007
.step vds=0.54 l=3.64e-007
.step vds=0.55 l=3.64e-007
.step vds=0.56 l=3.64e-007
.step vds=0.57 l=3.64e-007
.step vds=0.58 l=3.64e-007
.step vds=0.59 l=3.64e-007
.step vds=0.6 l=3.64e-007
.step vds=0.61 l=3.64e-007
.step vds=0.62 l=3.64e-007
.step vds=0.63 l=3.64e-007
.step vds=0.64 l=3.64e-007
.step vds=0.65 l=3.64e-007
.step vds=0.66 l=3.64e-007
.step vds=0.67 l=3.64e-007
.step vds=0.68 l=3.64e-007
.step vds=0.69 l=3.64e-007
.step vds=0.7 l=3.64e-007
.step vds=0.71 l=3.64e-007
.step vds=0.72 l=3.64e-007
.step vds=0.73 l=3.64e-007
.step vds=0.74 l=3.64e-007
.step vds=0.75 l=3.64e-007
.step vds=0.76 l=3.64e-007
.step vds=0.77 l=3.64e-007
.step vds=0.78 l=3.64e-007
.step vds=0.79 l=3.64e-007
.step vds=0.8 l=3.64e-007
.step vds=0.81 l=3.64e-007
.step vds=0.82 l=3.64e-007
.step vds=0.83 l=3.64e-007
.step vds=0.84 l=3.64e-007
.step vds=0.85 l=3.64e-007
.step vds=0.86 l=3.64e-007
.step vds=0.87 l=3.64e-007
.step vds=0.88 l=3.64e-007
.step vds=0.89 l=3.64e-007
.step vds=0.9 l=3.64e-007
.step vds=0.91 l=3.64e-007
.step vds=0.92 l=3.64e-007
.step vds=0.93 l=3.64e-007
.step vds=0.94 l=3.64e-007
.step vds=0.95 l=3.64e-007
.step vds=0.96 l=3.64e-007
.step vds=0.97 l=3.64e-007
.step vds=0.98 l=3.64e-007
.step vds=0.99 l=3.64e-007
.step vds=1 l=3.64e-007
.step vds=0 l=3.92e-007
.step vds=0.01 l=3.92e-007
.step vds=0.02 l=3.92e-007
.step vds=0.03 l=3.92e-007
.step vds=0.04 l=3.92e-007
.step vds=0.05 l=3.92e-007
.step vds=0.06 l=3.92e-007
.step vds=0.07 l=3.92e-007
.step vds=0.08 l=3.92e-007
.step vds=0.09 l=3.92e-007
.step vds=0.1 l=3.92e-007
.step vds=0.11 l=3.92e-007
.step vds=0.12 l=3.92e-007
.step vds=0.13 l=3.92e-007
.step vds=0.14 l=3.92e-007
.step vds=0.15 l=3.92e-007
.step vds=0.16 l=3.92e-007
.step vds=0.17 l=3.92e-007
.step vds=0.18 l=3.92e-007
.step vds=0.19 l=3.92e-007
.step vds=0.2 l=3.92e-007
.step vds=0.21 l=3.92e-007
.step vds=0.22 l=3.92e-007
.step vds=0.23 l=3.92e-007
.step vds=0.24 l=3.92e-007
.step vds=0.25 l=3.92e-007
.step vds=0.26 l=3.92e-007
.step vds=0.27 l=3.92e-007
.step vds=0.28 l=3.92e-007
.step vds=0.29 l=3.92e-007
.step vds=0.3 l=3.92e-007
.step vds=0.31 l=3.92e-007
.step vds=0.32 l=3.92e-007
.step vds=0.33 l=3.92e-007
.step vds=0.34 l=3.92e-007
.step vds=0.35 l=3.92e-007
.step vds=0.36 l=3.92e-007
.step vds=0.37 l=3.92e-007
.step vds=0.38 l=3.92e-007
.step vds=0.39 l=3.92e-007
.step vds=0.4 l=3.92e-007
.step vds=0.41 l=3.92e-007
.step vds=0.42 l=3.92e-007
.step vds=0.43 l=3.92e-007
.step vds=0.44 l=3.92e-007
.step vds=0.45 l=3.92e-007
.step vds=0.46 l=3.92e-007
.step vds=0.47 l=3.92e-007
.step vds=0.48 l=3.92e-007
.step vds=0.49 l=3.92e-007
.step vds=0.5 l=3.92e-007
.step vds=0.51 l=3.92e-007
.step vds=0.52 l=3.92e-007
.step vds=0.53 l=3.92e-007
.step vds=0.54 l=3.92e-007
.step vds=0.55 l=3.92e-007
.step vds=0.56 l=3.92e-007
.step vds=0.57 l=3.92e-007
.step vds=0.58 l=3.92e-007
.step vds=0.59 l=3.92e-007
.step vds=0.6 l=3.92e-007
.step vds=0.61 l=3.92e-007
.step vds=0.62 l=3.92e-007
.step vds=0.63 l=3.92e-007
.step vds=0.64 l=3.92e-007
.step vds=0.65 l=3.92e-007
.step vds=0.66 l=3.92e-007
.step vds=0.67 l=3.92e-007
.step vds=0.68 l=3.92e-007
.step vds=0.69 l=3.92e-007
.step vds=0.7 l=3.92e-007
.step vds=0.71 l=3.92e-007
.step vds=0.72 l=3.92e-007
.step vds=0.73 l=3.92e-007
.step vds=0.74 l=3.92e-007
.step vds=0.75 l=3.92e-007
.step vds=0.76 l=3.92e-007
.step vds=0.77 l=3.92e-007
.step vds=0.78 l=3.92e-007
.step vds=0.79 l=3.92e-007
.step vds=0.8 l=3.92e-007
.step vds=0.81 l=3.92e-007
.step vds=0.82 l=3.92e-007
.step vds=0.83 l=3.92e-007
.step vds=0.84 l=3.92e-007
.step vds=0.85 l=3.92e-007
.step vds=0.86 l=3.92e-007
.step vds=0.87 l=3.92e-007
.step vds=0.88 l=3.92e-007
.step vds=0.89 l=3.92e-007
.step vds=0.9 l=3.92e-007
.step vds=0.91 l=3.92e-007
.step vds=0.92 l=3.92e-007
.step vds=0.93 l=3.92e-007
.step vds=0.94 l=3.92e-007
.step vds=0.95 l=3.92e-007
.step vds=0.96 l=3.92e-007
.step vds=0.97 l=3.92e-007
.step vds=0.98 l=3.92e-007
.step vds=0.99 l=3.92e-007
.step vds=1 l=3.92e-007
.step vds=0 l=4.2e-007
.step vds=0.01 l=4.2e-007
.step vds=0.02 l=4.2e-007
.step vds=0.03 l=4.2e-007
.step vds=0.04 l=4.2e-007
.step vds=0.05 l=4.2e-007
.step vds=0.06 l=4.2e-007
.step vds=0.07 l=4.2e-007
.step vds=0.08 l=4.2e-007
.step vds=0.09 l=4.2e-007
.step vds=0.1 l=4.2e-007
.step vds=0.11 l=4.2e-007
.step vds=0.12 l=4.2e-007
.step vds=0.13 l=4.2e-007
.step vds=0.14 l=4.2e-007
.step vds=0.15 l=4.2e-007
.step vds=0.16 l=4.2e-007
.step vds=0.17 l=4.2e-007
.step vds=0.18 l=4.2e-007
.step vds=0.19 l=4.2e-007
.step vds=0.2 l=4.2e-007
.step vds=0.21 l=4.2e-007
.step vds=0.22 l=4.2e-007
.step vds=0.23 l=4.2e-007
.step vds=0.24 l=4.2e-007
.step vds=0.25 l=4.2e-007
.step vds=0.26 l=4.2e-007
.step vds=0.27 l=4.2e-007
.step vds=0.28 l=4.2e-007
.step vds=0.29 l=4.2e-007
.step vds=0.3 l=4.2e-007
.step vds=0.31 l=4.2e-007
.step vds=0.32 l=4.2e-007
.step vds=0.33 l=4.2e-007
.step vds=0.34 l=4.2e-007
.step vds=0.35 l=4.2e-007
.step vds=0.36 l=4.2e-007
.step vds=0.37 l=4.2e-007
.step vds=0.38 l=4.2e-007
.step vds=0.39 l=4.2e-007
.step vds=0.4 l=4.2e-007
.step vds=0.41 l=4.2e-007
.step vds=0.42 l=4.2e-007
.step vds=0.43 l=4.2e-007
.step vds=0.44 l=4.2e-007
.step vds=0.45 l=4.2e-007
.step vds=0.46 l=4.2e-007
.step vds=0.47 l=4.2e-007
.step vds=0.48 l=4.2e-007
.step vds=0.49 l=4.2e-007
.step vds=0.5 l=4.2e-007
.step vds=0.51 l=4.2e-007
.step vds=0.52 l=4.2e-007
.step vds=0.53 l=4.2e-007
.step vds=0.54 l=4.2e-007
.step vds=0.55 l=4.2e-007
.step vds=0.56 l=4.2e-007
.step vds=0.57 l=4.2e-007
.step vds=0.58 l=4.2e-007
.step vds=0.59 l=4.2e-007
.step vds=0.6 l=4.2e-007
.step vds=0.61 l=4.2e-007
.step vds=0.62 l=4.2e-007
.step vds=0.63 l=4.2e-007
.step vds=0.64 l=4.2e-007
.step vds=0.65 l=4.2e-007
.step vds=0.66 l=4.2e-007
.step vds=0.67 l=4.2e-007
.step vds=0.68 l=4.2e-007
.step vds=0.69 l=4.2e-007
.step vds=0.7 l=4.2e-007
.step vds=0.71 l=4.2e-007
.step vds=0.72 l=4.2e-007
.step vds=0.73 l=4.2e-007
.step vds=0.74 l=4.2e-007
.step vds=0.75 l=4.2e-007
.step vds=0.76 l=4.2e-007
.step vds=0.77 l=4.2e-007
.step vds=0.78 l=4.2e-007
.step vds=0.79 l=4.2e-007
.step vds=0.8 l=4.2e-007
.step vds=0.81 l=4.2e-007
.step vds=0.82 l=4.2e-007
.step vds=0.83 l=4.2e-007
.step vds=0.84 l=4.2e-007
.step vds=0.85 l=4.2e-007
.step vds=0.86 l=4.2e-007
.step vds=0.87 l=4.2e-007
.step vds=0.88 l=4.2e-007
.step vds=0.89 l=4.2e-007
.step vds=0.9 l=4.2e-007
.step vds=0.91 l=4.2e-007
.step vds=0.92 l=4.2e-007
.step vds=0.93 l=4.2e-007
.step vds=0.94 l=4.2e-007
.step vds=0.95 l=4.2e-007
.step vds=0.96 l=4.2e-007
.step vds=0.97 l=4.2e-007
.step vds=0.98 l=4.2e-007
.step vds=0.99 l=4.2e-007
.step vds=1 l=4.2e-007
.step vds=0 l=4.48e-007
.step vds=0.01 l=4.48e-007
.step vds=0.02 l=4.48e-007
.step vds=0.03 l=4.48e-007
.step vds=0.04 l=4.48e-007
.step vds=0.05 l=4.48e-007
.step vds=0.06 l=4.48e-007
.step vds=0.07 l=4.48e-007
.step vds=0.08 l=4.48e-007
.step vds=0.09 l=4.48e-007
.step vds=0.1 l=4.48e-007
.step vds=0.11 l=4.48e-007
.step vds=0.12 l=4.48e-007
.step vds=0.13 l=4.48e-007
.step vds=0.14 l=4.48e-007
.step vds=0.15 l=4.48e-007
.step vds=0.16 l=4.48e-007
.step vds=0.17 l=4.48e-007
.step vds=0.18 l=4.48e-007
.step vds=0.19 l=4.48e-007
.step vds=0.2 l=4.48e-007
.step vds=0.21 l=4.48e-007
.step vds=0.22 l=4.48e-007
.step vds=0.23 l=4.48e-007
.step vds=0.24 l=4.48e-007
.step vds=0.25 l=4.48e-007
.step vds=0.26 l=4.48e-007
.step vds=0.27 l=4.48e-007
.step vds=0.28 l=4.48e-007
.step vds=0.29 l=4.48e-007
.step vds=0.3 l=4.48e-007
.step vds=0.31 l=4.48e-007
.step vds=0.32 l=4.48e-007
.step vds=0.33 l=4.48e-007
.step vds=0.34 l=4.48e-007
.step vds=0.35 l=4.48e-007
.step vds=0.36 l=4.48e-007
.step vds=0.37 l=4.48e-007
.step vds=0.38 l=4.48e-007
.step vds=0.39 l=4.48e-007
.step vds=0.4 l=4.48e-007
.step vds=0.41 l=4.48e-007
.step vds=0.42 l=4.48e-007
.step vds=0.43 l=4.48e-007
.step vds=0.44 l=4.48e-007
.step vds=0.45 l=4.48e-007
.step vds=0.46 l=4.48e-007
.step vds=0.47 l=4.48e-007
.step vds=0.48 l=4.48e-007
.step vds=0.49 l=4.48e-007
.step vds=0.5 l=4.48e-007
.step vds=0.51 l=4.48e-007
.step vds=0.52 l=4.48e-007
.step vds=0.53 l=4.48e-007
.step vds=0.54 l=4.48e-007
.step vds=0.55 l=4.48e-007
.step vds=0.56 l=4.48e-007
.step vds=0.57 l=4.48e-007
.step vds=0.58 l=4.48e-007
.step vds=0.59 l=4.48e-007
.step vds=0.6 l=4.48e-007
.step vds=0.61 l=4.48e-007
.step vds=0.62 l=4.48e-007
.step vds=0.63 l=4.48e-007
.step vds=0.64 l=4.48e-007
.step vds=0.65 l=4.48e-007
.step vds=0.66 l=4.48e-007
.step vds=0.67 l=4.48e-007
.step vds=0.68 l=4.48e-007
.step vds=0.69 l=4.48e-007
.step vds=0.7 l=4.48e-007
.step vds=0.71 l=4.48e-007
.step vds=0.72 l=4.48e-007
.step vds=0.73 l=4.48e-007
.step vds=0.74 l=4.48e-007
.step vds=0.75 l=4.48e-007
.step vds=0.76 l=4.48e-007
.step vds=0.77 l=4.48e-007
.step vds=0.78 l=4.48e-007
.step vds=0.79 l=4.48e-007
.step vds=0.8 l=4.48e-007
.step vds=0.81 l=4.48e-007
.step vds=0.82 l=4.48e-007
.step vds=0.83 l=4.48e-007
.step vds=0.84 l=4.48e-007
.step vds=0.85 l=4.48e-007
.step vds=0.86 l=4.48e-007
.step vds=0.87 l=4.48e-007
.step vds=0.88 l=4.48e-007
.step vds=0.89 l=4.48e-007
.step vds=0.9 l=4.48e-007
.step vds=0.91 l=4.48e-007
.step vds=0.92 l=4.48e-007
.step vds=0.93 l=4.48e-007
.step vds=0.94 l=4.48e-007
.step vds=0.95 l=4.48e-007
.step vds=0.96 l=4.48e-007
.step vds=0.97 l=4.48e-007
.step vds=0.98 l=4.48e-007
.step vds=0.99 l=4.48e-007
.step vds=1 l=4.48e-007
.step vds=0 l=4.76e-007
.step vds=0.01 l=4.76e-007
.step vds=0.02 l=4.76e-007
.step vds=0.03 l=4.76e-007
.step vds=0.04 l=4.76e-007
.step vds=0.05 l=4.76e-007
.step vds=0.06 l=4.76e-007
.step vds=0.07 l=4.76e-007
.step vds=0.08 l=4.76e-007
.step vds=0.09 l=4.76e-007
.step vds=0.1 l=4.76e-007
.step vds=0.11 l=4.76e-007
.step vds=0.12 l=4.76e-007
.step vds=0.13 l=4.76e-007
.step vds=0.14 l=4.76e-007
.step vds=0.15 l=4.76e-007
.step vds=0.16 l=4.76e-007
.step vds=0.17 l=4.76e-007
.step vds=0.18 l=4.76e-007
.step vds=0.19 l=4.76e-007
.step vds=0.2 l=4.76e-007
.step vds=0.21 l=4.76e-007
.step vds=0.22 l=4.76e-007
.step vds=0.23 l=4.76e-007
.step vds=0.24 l=4.76e-007
.step vds=0.25 l=4.76e-007
.step vds=0.26 l=4.76e-007
.step vds=0.27 l=4.76e-007
.step vds=0.28 l=4.76e-007
.step vds=0.29 l=4.76e-007
.step vds=0.3 l=4.76e-007
.step vds=0.31 l=4.76e-007
.step vds=0.32 l=4.76e-007
.step vds=0.33 l=4.76e-007
.step vds=0.34 l=4.76e-007
.step vds=0.35 l=4.76e-007
.step vds=0.36 l=4.76e-007
.step vds=0.37 l=4.76e-007
.step vds=0.38 l=4.76e-007
.step vds=0.39 l=4.76e-007
.step vds=0.4 l=4.76e-007
.step vds=0.41 l=4.76e-007
.step vds=0.42 l=4.76e-007
.step vds=0.43 l=4.76e-007
.step vds=0.44 l=4.76e-007
.step vds=0.45 l=4.76e-007
.step vds=0.46 l=4.76e-007
.step vds=0.47 l=4.76e-007
.step vds=0.48 l=4.76e-007
.step vds=0.49 l=4.76e-007
.step vds=0.5 l=4.76e-007
.step vds=0.51 l=4.76e-007
.step vds=0.52 l=4.76e-007
.step vds=0.53 l=4.76e-007
.step vds=0.54 l=4.76e-007
.step vds=0.55 l=4.76e-007
.step vds=0.56 l=4.76e-007
.step vds=0.57 l=4.76e-007
.step vds=0.58 l=4.76e-007
.step vds=0.59 l=4.76e-007
.step vds=0.6 l=4.76e-007
.step vds=0.61 l=4.76e-007
.step vds=0.62 l=4.76e-007
.step vds=0.63 l=4.76e-007
.step vds=0.64 l=4.76e-007
.step vds=0.65 l=4.76e-007
.step vds=0.66 l=4.76e-007
.step vds=0.67 l=4.76e-007
.step vds=0.68 l=4.76e-007
.step vds=0.69 l=4.76e-007
.step vds=0.7 l=4.76e-007
.step vds=0.71 l=4.76e-007
.step vds=0.72 l=4.76e-007
.step vds=0.73 l=4.76e-007
.step vds=0.74 l=4.76e-007
.step vds=0.75 l=4.76e-007
.step vds=0.76 l=4.76e-007
.step vds=0.77 l=4.76e-007
.step vds=0.78 l=4.76e-007
.step vds=0.79 l=4.76e-007
.step vds=0.8 l=4.76e-007
.step vds=0.81 l=4.76e-007
.step vds=0.82 l=4.76e-007
.step vds=0.83 l=4.76e-007
.step vds=0.84 l=4.76e-007
.step vds=0.85 l=4.76e-007
.step vds=0.86 l=4.76e-007
.step vds=0.87 l=4.76e-007
.step vds=0.88 l=4.76e-007
.step vds=0.89 l=4.76e-007
.step vds=0.9 l=4.76e-007
.step vds=0.91 l=4.76e-007
.step vds=0.92 l=4.76e-007
.step vds=0.93 l=4.76e-007
.step vds=0.94 l=4.76e-007
.step vds=0.95 l=4.76e-007
.step vds=0.96 l=4.76e-007
.step vds=0.97 l=4.76e-007
.step vds=0.98 l=4.76e-007
.step vds=0.99 l=4.76e-007
.step vds=1 l=4.76e-007
.step vds=0 l=5.04e-007
.step vds=0.01 l=5.04e-007
.step vds=0.02 l=5.04e-007
.step vds=0.03 l=5.04e-007
.step vds=0.04 l=5.04e-007
.step vds=0.05 l=5.04e-007
.step vds=0.06 l=5.04e-007
.step vds=0.07 l=5.04e-007
.step vds=0.08 l=5.04e-007
.step vds=0.09 l=5.04e-007
.step vds=0.1 l=5.04e-007
.step vds=0.11 l=5.04e-007
.step vds=0.12 l=5.04e-007
.step vds=0.13 l=5.04e-007
.step vds=0.14 l=5.04e-007
.step vds=0.15 l=5.04e-007
.step vds=0.16 l=5.04e-007
.step vds=0.17 l=5.04e-007
.step vds=0.18 l=5.04e-007
.step vds=0.19 l=5.04e-007
.step vds=0.2 l=5.04e-007
.step vds=0.21 l=5.04e-007
.step vds=0.22 l=5.04e-007
.step vds=0.23 l=5.04e-007
.step vds=0.24 l=5.04e-007
.step vds=0.25 l=5.04e-007
.step vds=0.26 l=5.04e-007
.step vds=0.27 l=5.04e-007
.step vds=0.28 l=5.04e-007
.step vds=0.29 l=5.04e-007
.step vds=0.3 l=5.04e-007
.step vds=0.31 l=5.04e-007
.step vds=0.32 l=5.04e-007
.step vds=0.33 l=5.04e-007
.step vds=0.34 l=5.04e-007
.step vds=0.35 l=5.04e-007
.step vds=0.36 l=5.04e-007
.step vds=0.37 l=5.04e-007
.step vds=0.38 l=5.04e-007
.step vds=0.39 l=5.04e-007
.step vds=0.4 l=5.04e-007
.step vds=0.41 l=5.04e-007
.step vds=0.42 l=5.04e-007
.step vds=0.43 l=5.04e-007
.step vds=0.44 l=5.04e-007
.step vds=0.45 l=5.04e-007
.step vds=0.46 l=5.04e-007
.step vds=0.47 l=5.04e-007
.step vds=0.48 l=5.04e-007
.step vds=0.49 l=5.04e-007
.step vds=0.5 l=5.04e-007
.step vds=0.51 l=5.04e-007
.step vds=0.52 l=5.04e-007
.step vds=0.53 l=5.04e-007
.step vds=0.54 l=5.04e-007
.step vds=0.55 l=5.04e-007
.step vds=0.56 l=5.04e-007
.step vds=0.57 l=5.04e-007
.step vds=0.58 l=5.04e-007
.step vds=0.59 l=5.04e-007
.step vds=0.6 l=5.04e-007
.step vds=0.61 l=5.04e-007
.step vds=0.62 l=5.04e-007
.step vds=0.63 l=5.04e-007
.step vds=0.64 l=5.04e-007
.step vds=0.65 l=5.04e-007
.step vds=0.66 l=5.04e-007
.step vds=0.67 l=5.04e-007
.step vds=0.68 l=5.04e-007
.step vds=0.69 l=5.04e-007
.step vds=0.7 l=5.04e-007
.step vds=0.71 l=5.04e-007
.step vds=0.72 l=5.04e-007
.step vds=0.73 l=5.04e-007
.step vds=0.74 l=5.04e-007
.step vds=0.75 l=5.04e-007
.step vds=0.76 l=5.04e-007
.step vds=0.77 l=5.04e-007
.step vds=0.78 l=5.04e-007
.step vds=0.79 l=5.04e-007
.step vds=0.8 l=5.04e-007
.step vds=0.81 l=5.04e-007
.step vds=0.82 l=5.04e-007
.step vds=0.83 l=5.04e-007
.step vds=0.84 l=5.04e-007
.step vds=0.85 l=5.04e-007
.step vds=0.86 l=5.04e-007
.step vds=0.87 l=5.04e-007
.step vds=0.88 l=5.04e-007
.step vds=0.89 l=5.04e-007
.step vds=0.9 l=5.04e-007
.step vds=0.91 l=5.04e-007
.step vds=0.92 l=5.04e-007
.step vds=0.93 l=5.04e-007
.step vds=0.94 l=5.04e-007
.step vds=0.95 l=5.04e-007
.step vds=0.96 l=5.04e-007
.step vds=0.97 l=5.04e-007
.step vds=0.98 l=5.04e-007
.step vds=0.99 l=5.04e-007
.step vds=1 l=5.04e-007
.step vds=0 l=5.32e-007
.step vds=0.01 l=5.32e-007
.step vds=0.02 l=5.32e-007
.step vds=0.03 l=5.32e-007
.step vds=0.04 l=5.32e-007
.step vds=0.05 l=5.32e-007
.step vds=0.06 l=5.32e-007
.step vds=0.07 l=5.32e-007
.step vds=0.08 l=5.32e-007
.step vds=0.09 l=5.32e-007
.step vds=0.1 l=5.32e-007
.step vds=0.11 l=5.32e-007
.step vds=0.12 l=5.32e-007
.step vds=0.13 l=5.32e-007
.step vds=0.14 l=5.32e-007
.step vds=0.15 l=5.32e-007
.step vds=0.16 l=5.32e-007
.step vds=0.17 l=5.32e-007
.step vds=0.18 l=5.32e-007
.step vds=0.19 l=5.32e-007
.step vds=0.2 l=5.32e-007
.step vds=0.21 l=5.32e-007
.step vds=0.22 l=5.32e-007
.step vds=0.23 l=5.32e-007
.step vds=0.24 l=5.32e-007
.step vds=0.25 l=5.32e-007
.step vds=0.26 l=5.32e-007
.step vds=0.27 l=5.32e-007
.step vds=0.28 l=5.32e-007
.step vds=0.29 l=5.32e-007
.step vds=0.3 l=5.32e-007
.step vds=0.31 l=5.32e-007
.step vds=0.32 l=5.32e-007
.step vds=0.33 l=5.32e-007
.step vds=0.34 l=5.32e-007
.step vds=0.35 l=5.32e-007
.step vds=0.36 l=5.32e-007
.step vds=0.37 l=5.32e-007
.step vds=0.38 l=5.32e-007
.step vds=0.39 l=5.32e-007
.step vds=0.4 l=5.32e-007
.step vds=0.41 l=5.32e-007
.step vds=0.42 l=5.32e-007
.step vds=0.43 l=5.32e-007
.step vds=0.44 l=5.32e-007
.step vds=0.45 l=5.32e-007
.step vds=0.46 l=5.32e-007
.step vds=0.47 l=5.32e-007
.step vds=0.48 l=5.32e-007
.step vds=0.49 l=5.32e-007
.step vds=0.5 l=5.32e-007
.step vds=0.51 l=5.32e-007
.step vds=0.52 l=5.32e-007
.step vds=0.53 l=5.32e-007
.step vds=0.54 l=5.32e-007
.step vds=0.55 l=5.32e-007
.step vds=0.56 l=5.32e-007
.step vds=0.57 l=5.32e-007
.step vds=0.58 l=5.32e-007
.step vds=0.59 l=5.32e-007
.step vds=0.6 l=5.32e-007
.step vds=0.61 l=5.32e-007
.step vds=0.62 l=5.32e-007
.step vds=0.63 l=5.32e-007
.step vds=0.64 l=5.32e-007
.step vds=0.65 l=5.32e-007
.step vds=0.66 l=5.32e-007
.step vds=0.67 l=5.32e-007
.step vds=0.68 l=5.32e-007
.step vds=0.69 l=5.32e-007
.step vds=0.7 l=5.32e-007
.step vds=0.71 l=5.32e-007
.step vds=0.72 l=5.32e-007
.step vds=0.73 l=5.32e-007
.step vds=0.74 l=5.32e-007
.step vds=0.75 l=5.32e-007
.step vds=0.76 l=5.32e-007
.step vds=0.77 l=5.32e-007
.step vds=0.78 l=5.32e-007
.step vds=0.79 l=5.32e-007
.step vds=0.8 l=5.32e-007
.step vds=0.81 l=5.32e-007
.step vds=0.82 l=5.32e-007
.step vds=0.83 l=5.32e-007
.step vds=0.84 l=5.32e-007
.step vds=0.85 l=5.32e-007
.step vds=0.86 l=5.32e-007
.step vds=0.87 l=5.32e-007
.step vds=0.88 l=5.32e-007
.step vds=0.89 l=5.32e-007
.step vds=0.9 l=5.32e-007
.step vds=0.91 l=5.32e-007
.step vds=0.92 l=5.32e-007
.step vds=0.93 l=5.32e-007
.step vds=0.94 l=5.32e-007
.step vds=0.95 l=5.32e-007
.step vds=0.96 l=5.32e-007
.step vds=0.97 l=5.32e-007
.step vds=0.98 l=5.32e-007
.step vds=0.99 l=5.32e-007
.step vds=1 l=5.32e-007
.step vds=0 l=5.6e-007
.step vds=0.01 l=5.6e-007
.step vds=0.02 l=5.6e-007
.step vds=0.03 l=5.6e-007
.step vds=0.04 l=5.6e-007
.step vds=0.05 l=5.6e-007
.step vds=0.06 l=5.6e-007
.step vds=0.07 l=5.6e-007
.step vds=0.08 l=5.6e-007
.step vds=0.09 l=5.6e-007
.step vds=0.1 l=5.6e-007
.step vds=0.11 l=5.6e-007
.step vds=0.12 l=5.6e-007
.step vds=0.13 l=5.6e-007
.step vds=0.14 l=5.6e-007
.step vds=0.15 l=5.6e-007
.step vds=0.16 l=5.6e-007
.step vds=0.17 l=5.6e-007
.step vds=0.18 l=5.6e-007
.step vds=0.19 l=5.6e-007
.step vds=0.2 l=5.6e-007
.step vds=0.21 l=5.6e-007
.step vds=0.22 l=5.6e-007
.step vds=0.23 l=5.6e-007
.step vds=0.24 l=5.6e-007
.step vds=0.25 l=5.6e-007
.step vds=0.26 l=5.6e-007
.step vds=0.27 l=5.6e-007
.step vds=0.28 l=5.6e-007
.step vds=0.29 l=5.6e-007
.step vds=0.3 l=5.6e-007
.step vds=0.31 l=5.6e-007
.step vds=0.32 l=5.6e-007
.step vds=0.33 l=5.6e-007
.step vds=0.34 l=5.6e-007
.step vds=0.35 l=5.6e-007
.step vds=0.36 l=5.6e-007
.step vds=0.37 l=5.6e-007
.step vds=0.38 l=5.6e-007
.step vds=0.39 l=5.6e-007
.step vds=0.4 l=5.6e-007
.step vds=0.41 l=5.6e-007
.step vds=0.42 l=5.6e-007
.step vds=0.43 l=5.6e-007
.step vds=0.44 l=5.6e-007
.step vds=0.45 l=5.6e-007
.step vds=0.46 l=5.6e-007
.step vds=0.47 l=5.6e-007
.step vds=0.48 l=5.6e-007
.step vds=0.49 l=5.6e-007
.step vds=0.5 l=5.6e-007
.step vds=0.51 l=5.6e-007
.step vds=0.52 l=5.6e-007
.step vds=0.53 l=5.6e-007
.step vds=0.54 l=5.6e-007
.step vds=0.55 l=5.6e-007
.step vds=0.56 l=5.6e-007
.step vds=0.57 l=5.6e-007
.step vds=0.58 l=5.6e-007
.step vds=0.59 l=5.6e-007
.step vds=0.6 l=5.6e-007
.step vds=0.61 l=5.6e-007
.step vds=0.62 l=5.6e-007
.step vds=0.63 l=5.6e-007
.step vds=0.64 l=5.6e-007
.step vds=0.65 l=5.6e-007
.step vds=0.66 l=5.6e-007
.step vds=0.67 l=5.6e-007
.step vds=0.68 l=5.6e-007
.step vds=0.69 l=5.6e-007
.step vds=0.7 l=5.6e-007
.step vds=0.71 l=5.6e-007
.step vds=0.72 l=5.6e-007
.step vds=0.73 l=5.6e-007
.step vds=0.74 l=5.6e-007
.step vds=0.75 l=5.6e-007
.step vds=0.76 l=5.6e-007
.step vds=0.77 l=5.6e-007
.step vds=0.78 l=5.6e-007
.step vds=0.79 l=5.6e-007
.step vds=0.8 l=5.6e-007
.step vds=0.81 l=5.6e-007
.step vds=0.82 l=5.6e-007
.step vds=0.83 l=5.6e-007
.step vds=0.84 l=5.6e-007
.step vds=0.85 l=5.6e-007
.step vds=0.86 l=5.6e-007
.step vds=0.87 l=5.6e-007
.step vds=0.88 l=5.6e-007
.step vds=0.89 l=5.6e-007
.step vds=0.9 l=5.6e-007
.step vds=0.91 l=5.6e-007
.step vds=0.92 l=5.6e-007
.step vds=0.93 l=5.6e-007
.step vds=0.94 l=5.6e-007
.step vds=0.95 l=5.6e-007
.step vds=0.96 l=5.6e-007
.step vds=0.97 l=5.6e-007
.step vds=0.98 l=5.6e-007
.step vds=0.99 l=5.6e-007
.step vds=1 l=5.6e-007

Date: Sun Jun 12 15:41:21 2022
Total elapsed time: 5.314 seconds.

tnom = 27
temp = 27
method = trap
totiter = 202400
traniter = 0
tranpoints = 0
accept = 0
rejected = 0
matrix size = 8
fillins = 0
solver = Normal
Matrix Compiler1:      20 opcodes  0.1/[0.1]/0.1
Matrix Compiler2:      52 opcodes  0.1/[0.1]/0.1

