Circuit: * C:\Users\emman\OneDrive\Desktop\Microelectronics Research\CoE197U\Lab05\lab05_nmos_char.asc


Date: Sat May 15 00:13:09 2021
Total elapsed time: 0.056 seconds.

tnom = 27
temp = 27
method = trap
totiter = 2405
traniter = 0
tranpoints = 0
accept = 0
rejected = 0
matrix size = 8
fillins = 0
solver = Normal
Matrix Compiler1:      20 opcodes  0.1/[0.0]/0.0
Matrix Compiler2: off  [0.0]/0.1/0.0

