Circuit: * C:\Users\emman\OneDrive\Desktop\Microelectronics Research\CoE197U\Lab05\lab05_pmos_char.asc


Date: Sun May 23 22:04:10 2021
Total elapsed time: 0.145 seconds.

tnom = 27
temp = 27
method = trap
totiter = 2405
traniter = 0
tranpoints = 0
accept = 0
rejected = 0
matrix size = 8
fillins = 0
solver = Normal
Matrix Compiler1: 336 bytes object code size  0.1/0.0/[0.0]
Matrix Compiler2: 656 bytes object code size  0.1/0.1/[0.1]

