Circuit: * C:\Users\emman\OneDrive\Desktop\Microelectronics Research\CoE197U\Lab05\test.asc


Date: Fri May 14 23:26:30 2021
Total elapsed time: 0.150 seconds.

tnom = 27
temp = 27
method = trap
totiter = 2004
traniter = 0
tranpoints = 0
accept = 0
rejected = 0
matrix size = 8
fillins = 0
solver = Normal
Matrix Compiler1: 336 bytes object code size  0.1/0.1/[0.0]
Matrix Compiler2: off  [0.1]/0.1/0.1

