Circuit: * C:\Users\emman\OneDrive\Desktop\Microelectronics Research\CoE197U\Lab08\lab08_nmos_cascode_mirror.asc


Date: Sun Jun 27 01:38:57 2021
Total elapsed time: 0.140 seconds.

tnom = 27
temp = 27
method = trap
totiter = 2408
traniter = 0
tranpoints = 0
accept = 0
rejected = 0
matrix size = 23
fillins = 0
solver = Normal
Matrix Compiler1: 2.60 KB object code size  0.4/0.2/[0.2]
Matrix Compiler2: 2.25 KB object code size  0.2/0.2/[0.2]

