Circuit: * C:\Users\emman\OneDrive\Desktop\Microelectronics Research\CoE197U\Lab08\lab08_nmos_current_mirror.asc


Date: Sun Jun 27 01:33:17 2021
Total elapsed time: 0.138 seconds.

tnom = 27
temp = 27
method = trap
totiter = 2406
traniter = 0
tranpoints = 0
accept = 0
rejected = 0
matrix size = 13
fillins = 0
solver = Normal
Matrix Compiler1: 790 bytes object code size  0.2/0.1/[0.1]
Matrix Compiler2: off  [0.1]/0.1/0.1

