Circuit: * C:\Users\emman\OneDrive\Desktop\Microelectronics Research\CoE197U\Lab08\lab08_diff_pair.asc


Date: Sun Jun 27 14:54:38 2021
Total elapsed time: 0.052 seconds.

tnom = 27
temp = 27
method = trap
totiter = 406
traniter = 0
tranpoints = 0
accept = 0
rejected = 0
matrix size = 19
fillins = 0
solver = Normal
Matrix Compiler1: 1.69 KB object code size  0.3/0.2/[0.1]
Matrix Compiler2: 1.87 KB object code size  0.2/0.2/[0.2]

