Circuit: * C:\Users\emman\OneDrive\Desktop\Microelectronics Research\Analog\analog_design\gmId\32nm_cs_active\32nm_diff.asc

Direct Newton iteration for .op point succeeded.

Date: Sat Jun 25 16:06:03 2022
Total elapsed time: 0.047 seconds.

tnom = 27
temp = 27
method = modified trap
totiter = 2126
traniter = 2118
tranpoints = 1042
accept = 1042
rejected = 0
matrix size = 17
fillins = 0
solver = Normal
Matrix Compiler1: 1.84 KB object code size  0.3/0.2/[0.1]
Matrix Compiler2: 1.77 KB object code size  0.1/0.2/[0.1]

