Circuit: * C:\Users\emman\OneDrive\Desktop\Microelectronics Research\Analog\analog_design\gmId\32nm_cs_active\32nm_cs_activeLoad.asc

Direct Newton iteration for .op point succeeded.

Date: Tue Jun 14 23:30:06 2022
Total elapsed time: 0.038 seconds.

tnom = 27
temp = 27
method = modified trap
totiter = 2223
traniter = 2218
tranpoints = 1080
accept = 1052
rejected = 28
matrix size = 17
fillins = 0
solver = Normal
Matrix Compiler1: 1.03 KB object code size  0.2/0.1/[0.1]
Matrix Compiler2: 1.55 KB object code size  0.1/0.2/[0.1]

