Circuit: * C:\Users\emman\OneDrive\Desktop\Microelectronics Research\Analog\analog_design\gmId\32nm_cs_active\Draft2.asc


Date: Sun Jun 26 01:35:30 2022
Total elapsed time: 0.023 seconds.

tnom = 27
temp = 27
method = trap
totiter = 2005
traniter = 0
tranpoints = 0
accept = 0
rejected = 0
matrix size = 8
fillins = 0
solver = Normal
Matrix Compiler1: 336 bytes object code size  0.1/0.1/[0.0]
Matrix Compiler2: 656 bytes object code size  0.1/0.1/[0.0]

