Circuit: * C:\Users\emman\OneDrive\Desktop\Microelectronics Research\CoE197U\Lab06\cs_design.asc


Date: Tue Jun 22 15:51:03 2021
Total elapsed time: 0.060 seconds.

tnom = 27
temp = 27
method = trap
totiter = 2405
traniter = 0
tranpoints = 0
accept = 0
rejected = 0
matrix size = 9
fillins = 0
solver = Normal
Matrix Compiler1: 492 bytes object code size  0.1/0.0/[0.0]
Matrix Compiler2: 735 bytes object code size  0.1/0.1/[0.0]

