Circuit: * C:\Users\emman\OneDrive\Desktop\Microelectronics Research\CoE197U\Lab06\lab06_cs_amp_ac_extract.asc

Direct Newton iteration for .op point succeeded.
.step vgs=0
.step vgs=0.01
.step vgs=0.02
.step vgs=0.03
.step vgs=0.04
.step vgs=0.05
.step vgs=0.06
.step vgs=0.07
.step vgs=0.08
.step vgs=0.09
.step vgs=0.1
.step vgs=0.11
.step vgs=0.12
.step vgs=0.13
.step vgs=0.14
.step vgs=0.15
.step vgs=0.16
.step vgs=0.17
.step vgs=0.18
.step vgs=0.19
.step vgs=0.2
.step vgs=0.21
.step vgs=0.22
.step vgs=0.23
.step vgs=0.24
.step vgs=0.25
.step vgs=0.26
.step vgs=0.27
.step vgs=0.28
.step vgs=0.29
.step vgs=0.3
.step vgs=0.31
.step vgs=0.32
.step vgs=0.33
.step vgs=0.34
.step vgs=0.35
.step vgs=0.36
.step vgs=0.37
.step vgs=0.38
.step vgs=0.39
.step vgs=0.4
.step vgs=0.41
.step vgs=0.42
.step vgs=0.43
.step vgs=0.44
.step vgs=0.45
.step vgs=0.46
.step vgs=0.47
.step vgs=0.48
.step vgs=0.49
.step vgs=0.5
.step vgs=0.51
.step vgs=0.52
.step vgs=0.53
.step vgs=0.54
.step vgs=0.55
.step vgs=0.56
.step vgs=0.57
.step vgs=0.58
.step vgs=0.59
.step vgs=0.6
.step vgs=0.61
.step vgs=0.62
.step vgs=0.63
.step vgs=0.64
.step vgs=0.65
.step vgs=0.66
.step vgs=0.67
.step vgs=0.68
.step vgs=0.69
.step vgs=0.7
.step vgs=0.71
.step vgs=0.72
.step vgs=0.73
.step vgs=0.74
.step vgs=0.75
.step vgs=0.76
.step vgs=0.77
.step vgs=0.78
.step vgs=0.79
.step vgs=0.8
.step vgs=0.81
.step vgs=0.82
.step vgs=0.83
.step vgs=0.84
.step vgs=0.85
.step vgs=0.86
.step vgs=0.87
.step vgs=0.88
.step vgs=0.89
.step vgs=0.9
.step vgs=0.91
.step vgs=0.92
.step vgs=0.93
.step vgs=0.94
.step vgs=0.95
.step vgs=0.96
.step vgs=0.97
.step vgs=0.98
.step vgs=0.99
.step vgs=1
.step vgs=1.01
.step vgs=1.02
.step vgs=1.03
.step vgs=1.04
.step vgs=1.05
.step vgs=1.06
.step vgs=1.07
.step vgs=1.08
.step vgs=1.09
.step vgs=1.1
.step vgs=1.11
.step vgs=1.12
.step vgs=1.13
.step vgs=1.14
.step vgs=1.15
.step vgs=1.16
.step vgs=1.17
.step vgs=1.18
.step vgs=1.19
.step vgs=1.2


Measurement: gmro
  step	MAX(mag(v(vout)))	FROM	TO
     1	(-34.0361dB,0°)	1	100
     2	(-31.4077dB,0°)	1	100
     3	(-28.9305dB,0°)	1	100
     4	(-26.5714dB,0°)	1	100
     5	(-24.3106dB,0°)	1	100
     6	(-22.1354dB,0°)	1	100
     7	(-20.0373dB,0°)	1	100
     8	(-18.0105dB,0°)	1	100
     9	(-16.0504dB,0°)	1	100
    10	(-14.1536dB,0°)	1	100
    11	(-12.3168dB,0°)	1	100
    12	(-10.5372dB,0°)	1	100
    13	(-8.81256dB,0°)	1	100
    14	(-7.14074dB,0°)	1	100
    15	(-5.52027dB,0°)	1	100
    16	(-3.9503dB,0°)	1	100
    17	(-2.43074dB,0°)	1	100
    18	(-0.962281dB,0°)	1	100
    19	(0.453586dB,0°)	1	100
    20	(1.81465dB,0°)	1	100
    21	(3.11811dB,0°)	1	100
    22	(4.36083dB,0°)	1	100
    23	(5.53953dB,0°)	1	100
    24	(6.65109dB,0°)	1	100
    25	(7.69281dB,0°)	1	100
    26	(8.66261dB,0°)	1	100
    27	(9.55921dB,0°)	1	100
    28	(10.3823dB,0°)	1	100
    29	(11.1323dB,0°)	1	100
    30	(11.8109dB,0°)	1	100
    31	(12.4202dB,0°)	1	100
    32	(12.9634dB,0°)	1	100
    33	(13.4437dB,0°)	1	100
    34	(13.8651dB,0°)	1	100
    35	(14.2315dB,0°)	1	100
    36	(14.5426dB,0°)	1	100
    37	(14.8035dB,0°)	1	100
    38	(15.0186dB,0°)	1	100
    39	(15.187dB,0°)	1	100
    40	(15.2989dB,0°)	1	100
    41	(15.3107dB,0°)	1	100
    42	(15.019dB,0°)	1	100
    43	(13.4944dB,0°)	1	100
    44	(9.49674dB,0°)	1	100
    45	(5.13423dB,0°)	1	100
    46	(1.74841dB,0°)	1	100
    47	(-0.869355dB,0°)	1	100
    48	(-2.99326dB,0°)	1	100
    49	(-4.78989dB,0°)	1	100
    50	(-6.35755dB,0°)	1	100
    51	(-7.75704dB,0°)	1	100
    52	(-9.02806dB,0°)	1	100
    53	(-10.1977dB,0°)	1	100
    54	(-11.2855dB,0°)	1	100
    55	(-12.3056dB,0°)	1	100
    56	(-13.2689dB,0°)	1	100
    57	(-14.1838dB,0°)	1	100
    58	(-15.0573dB,0°)	1	100
    59	(-15.8947dB,0°)	1	100
    60	(-16.7006dB,0°)	1	100
    61	(-17.4788dB,0°)	1	100
    62	(-18.2325dB,0°)	1	100
    63	(-18.9647dB,0°)	1	100
    64	(-19.6777dB,0°)	1	100
    65	(-20.3737dB,0°)	1	100
    66	(-21.0546dB,0°)	1	100
    67	(-21.7222dB,0°)	1	100
    68	(-22.3782dB,0°)	1	100
    69	(-23.0238dB,0°)	1	100
    70	(-23.6607dB,0°)	1	100
    71	(-24.29dB,0°)	1	100
    72	(-24.9129dB,0°)	1	100
    73	(-25.5307dB,0°)	1	100
    74	(-26.1445dB,0°)	1	100
    75	(-26.7555dB,0°)	1	100
    76	(-27.3647dB,0°)	1	100
    77	(-27.9734dB,0°)	1	100
    78	(-28.5826dB,0°)	1	100
    79	(-29.1936dB,0°)	1	100
    80	(-29.8077dB,0°)	1	100
    81	(-30.426dB,0°)	1	100
    82	(-31.0501dB,0°)	1	100
    83	(-31.6815dB,0°)	1	100
    84	(-32.3217dB,0°)	1	100
    85	(-32.9727dB,0°)	1	100
    86	(-33.6364dB,0°)	1	100
    87	(-34.3151dB,0°)	1	100
    88	(-35.0115dB,0°)	1	100
    89	(-35.7285dB,0°)	1	100
    90	(-36.4697dB,0°)	1	100
    91	(-37.2391dB,0°)	1	100
    92	(-38.0417dB,0°)	1	100
    93	(-38.8836dB,0°)	1	100
    94	(-39.7721dB,0°)	1	100
    95	(-40.7166dB,0°)	1	100
    96	(-41.7291dB,0°)	1	100
    97	(-42.8254dB,0°)	1	100
    98	(-44.027dB,0°)	1	100
    99	(-45.3638dB,0°)	1	100
   100	(-46.8803dB,0°)	1	100
   101	(-48.6455dB,0°)	1	100
   102	(-50.7762dB,0°)	1	100
   103	(-53.4948dB,0°)	1	100
   104	(-57.3133dB,0°)	1	100
   105	(-63.967dB,0°)	1	100
   106	(-82.5728dB,0°)	1	100
   107	(-62.358dB,0°)	1	100
   108	(-56.8823dB,0°)	1	100
   109	(-53.62dB,0°)	1	100
   110	(-51.3035dB,0°)	1	100
   111	(-49.5134dB,0°)	1	100
   112	(-48.0585dB,0°)	1	100
   113	(-46.8352dB,0°)	1	100
   114	(-45.7813dB,0°)	1	100
   115	(-44.8561dB,0°)	1	100
   116	(-44.032dB,0°)	1	100
   117	(-43.2889dB,0°)	1	100
   118	(-42.6122dB,0°)	1	100
   119	(-41.9907dB,0°)	1	100
   120	(-41.4155dB,0°)	1	100
   121	(-40.8799dB,0°)	1	100


Date: Mon May 24 13:57:25 2021
Total elapsed time: 1.374 seconds.

tnom = 27
temp = 27
method = trap
totiter = 7
traniter = 0
tranpoints = 0
accept = 0
rejected = 0
matrix size = 9
fillins = 0
solver = Normal
Matrix Compiler1:      28 opcodes
Matrix Compiler2: 735 bytes object code size
